<?xml version="1.0" encoding="utf-8"?>
<!DOCTYPE population SYSTEM "http://www.matsim.org/files/dtd/population_v6.dtd">

<population>



<!-- ====================================================================== -->

	<person id="p_0">
		<attributes>
			<attribute name="vehicles" class="org.matsim.vehicles.PersonVehicles">{"car":"p_0"}</attribute>
		</attributes>
		<plan selected="yes">
			<activity type="h1" x="0.0" y="2500.0" end_time="08:30:18" >
			</activity>
			<leg mode="car">
			</leg>
			<activity type="h2" x="20000.0" y="2500.0" >
			</activity>
		</plan>

	</person>

<!-- ====================================================================== -->

	<person id="p_1">
		<attributes>
			<attribute name="vehicles" class="org.matsim.vehicles.PersonVehicles">{"car":"p_1"}</attribute>
		</attributes>
		<plan selected="yes">
			<activity type="h1" x="0.0" y="2500.0" end_time="08:24:23" >
			</activity>
			<leg mode="car">
			</leg>
			<activity type="h2" x="20000.0" y="2500.0" >
			</activity>
		</plan>

	</person>

<!-- ====================================================================== -->

	<person id="p_10">
		<attributes>
			<attribute name="vehicles" class="org.matsim.vehicles.PersonVehicles">{"car":"p_10"}</attribute>
		</attributes>
		<plan selected="yes">
			<activity type="h1" x="0.0" y="2500.0" end_time="08:07:09" >
			</activity>
			<leg mode="pt">
			</leg>
			<activity type="h2" x="20000.0" y="2500.0" >
			</activity>
		</plan>

	</person>

<!-- ====================================================================== -->

	<person id="p_100">
		<attributes>
			<attribute name="vehicles" class="org.matsim.vehicles.PersonVehicles">{"car":"p_100"}</attribute>
		</attributes>
		<plan selected="yes">
			<activity type="h1" x="0.0" y="2500.0" end_time="08:43:08" >
			</activity>
			<leg mode="car">
			</leg>
			<activity type="h2" x="20000.0" y="2500.0" >
			</activity>
		</plan>

	</person>

<!-- ====================================================================== -->

	<person id="p_1000">
		<attributes>
			<attribute name="vehicles" class="org.matsim.vehicles.PersonVehicles">{"car":"p_1000"}</attribute>
		</attributes>
		<plan selected="yes">
			<activity type="h1" x="0.0" y="2500.0" end_time="08:48:13" >
			</activity>
			<leg mode="pt">
			</leg>
			<activity type="h2" x="20000.0" y="2500.0" >
			</activity>
		</plan>

	</person>

<!-- ====================================================================== -->

	<person id="p_1001">
		<attributes>
			<attribute name="vehicles" class="org.matsim.vehicles.PersonVehicles">{"car":"p_1001"}</attribute>
		</attributes>
		<plan selected="yes">
			<activity type="h1" x="0.0" y="2500.0" end_time="08:25:50" >
			</activity>
			<leg mode="car">
			</leg>
			<activity type="h2" x="20000.0" y="2500.0" >
			</activity>
		</plan>

	</person>

<!-- ====================================================================== -->

	<person id="p_1002">
		<attributes>
			<attribute name="vehicles" class="org.matsim.vehicles.PersonVehicles">{"car":"p_1002"}</attribute>
		</attributes>
		<plan selected="yes">
			<activity type="h1" x="0.0" y="2500.0" end_time="08:58:28" >
			</activity>
			<leg mode="car">
			</leg>
			<activity type="h2" x="20000.0" y="2500.0" >
			</activity>
		</plan>

	</person>

<!-- ====================================================================== -->

	<person id="p_1003">
		<attributes>
			<attribute name="vehicles" class="org.matsim.vehicles.PersonVehicles">{"car":"p_1003"}</attribute>
		</attributes>
		<plan selected="yes">
			<activity type="h1" x="0.0" y="2500.0" end_time="08:44:34" >
			</activity>
			<leg mode="car">
			</leg>
			<activity type="h2" x="20000.0" y="2500.0" >
			</activity>
		</plan>

	</person>

<!-- ====================================================================== -->

	<person id="p_1004">
		<attributes>
			<attribute name="vehicles" class="org.matsim.vehicles.PersonVehicles">{"car":"p_1004"}</attribute>
		</attributes>
		<plan selected="yes">
			<activity type="h1" x="0.0" y="2500.0" end_time="08:39:22" >
			</activity>
			<leg mode="pt">
			</leg>
			<activity type="h2" x="20000.0" y="2500.0" >
			</activity>
		</plan>

	</person>

<!-- ====================================================================== -->

	<person id="p_1005">
		<attributes>
			<attribute name="vehicles" class="org.matsim.vehicles.PersonVehicles">{"car":"p_1005"}</attribute>
		</attributes>
		<plan selected="yes">
			<activity type="h1" x="0.0" y="2500.0" end_time="08:20:06" >
			</activity>
			<leg mode="pt">
			</leg>
			<activity type="h2" x="20000.0" y="2500.0" >
			</activity>
		</plan>

	</person>

<!-- ====================================================================== -->

	<person id="p_1006">
		<attributes>
			<attribute name="vehicles" class="org.matsim.vehicles.PersonVehicles">{"car":"p_1006"}</attribute>
		</attributes>
		<plan selected="yes">
			<activity type="h1" x="0.0" y="2500.0" end_time="08:03:28" >
			</activity>
			<leg mode="pt">
			</leg>
			<activity type="h2" x="20000.0" y="2500.0" >
			</activity>
		</plan>

	</person>

<!-- ====================================================================== -->

	<person id="p_1007">
		<attributes>
			<attribute name="vehicles" class="org.matsim.vehicles.PersonVehicles">{"car":"p_1007"}</attribute>
		</attributes>
		<plan selected="yes">
			<activity type="h1" x="0.0" y="2500.0" end_time="08:16:39" >
			</activity>
			<leg mode="car">
			</leg>
			<activity type="h2" x="20000.0" y="2500.0" >
			</activity>
		</plan>

	</person>

<!-- ====================================================================== -->

	<person id="p_1008">
		<attributes>
			<attribute name="vehicles" class="org.matsim.vehicles.PersonVehicles">{"car":"p_1008"}</attribute>
		</attributes>
		<plan selected="yes">
			<activity type="h1" x="0.0" y="2500.0" end_time="08:32:47" >
			</activity>
			<leg mode="car">
			</leg>
			<activity type="h2" x="20000.0" y="2500.0" >
			</activity>
		</plan>

	</person>

<!-- ====================================================================== -->

	<person id="p_1009">
		<attributes>
			<attribute name="vehicles" class="org.matsim.vehicles.PersonVehicles">{"car":"p_1009"}</attribute>
		</attributes>
		<plan selected="yes">
			<activity type="h1" x="0.0" y="2500.0" end_time="08:33:24" >
			</activity>
			<leg mode="pt">
			</leg>
			<activity type="h2" x="20000.0" y="2500.0" >
			</activity>
		</plan>

	</person>

<!-- ====================================================================== -->

	<person id="p_101">
		<attributes>
			<attribute name="vehicles" class="org.matsim.vehicles.PersonVehicles">{"car":"p_101"}</attribute>
		</attributes>
		<plan selected="yes">
			<activity type="h1" x="0.0" y="2500.0" end_time="08:24:38" >
			</activity>
			<leg mode="pt">
			</leg>
			<activity type="h2" x="20000.0" y="2500.0" >
			</activity>
		</plan>

	</person>

<!-- ====================================================================== -->

	<person id="p_1010">
		<attributes>
			<attribute name="vehicles" class="org.matsim.vehicles.PersonVehicles">{"car":"p_1010"}</attribute>
		</attributes>
		<plan selected="yes">
			<activity type="h1" x="0.0" y="2500.0" end_time="08:17:13" >
			</activity>
			<leg mode="car">
			</leg>
			<activity type="h2" x="20000.0" y="2500.0" >
			</activity>
		</plan>

	</person>

<!-- ====================================================================== -->

	<person id="p_1011">
		<attributes>
			<attribute name="vehicles" class="org.matsim.vehicles.PersonVehicles">{"car":"p_1011"}</attribute>
		</attributes>
		<plan selected="yes">
			<activity type="h1" x="0.0" y="2500.0" end_time="08:03:52" >
			</activity>
			<leg mode="pt">
			</leg>
			<activity type="h2" x="20000.0" y="2500.0" >
			</activity>
		</plan>

	</person>

<!-- ====================================================================== -->

	<person id="p_1012">
		<attributes>
			<attribute name="vehicles" class="org.matsim.vehicles.PersonVehicles">{"car":"p_1012"}</attribute>
		</attributes>
		<plan selected="yes">
			<activity type="h1" x="0.0" y="2500.0" end_time="08:28:16" >
			</activity>
			<leg mode="car">
			</leg>
			<activity type="h2" x="20000.0" y="2500.0" >
			</activity>
		</plan>

	</person>

<!-- ====================================================================== -->

	<person id="p_1013">
		<attributes>
			<attribute name="vehicles" class="org.matsim.vehicles.PersonVehicles">{"car":"p_1013"}</attribute>
		</attributes>
		<plan selected="yes">
			<activity type="h1" x="0.0" y="2500.0" end_time="08:05:40" >
			</activity>
			<leg mode="pt">
			</leg>
			<activity type="h2" x="20000.0" y="2500.0" >
			</activity>
		</plan>

	</person>

<!-- ====================================================================== -->

	<person id="p_1014">
		<attributes>
			<attribute name="vehicles" class="org.matsim.vehicles.PersonVehicles">{"car":"p_1014"}</attribute>
		</attributes>
		<plan selected="yes">
			<activity type="h1" x="0.0" y="2500.0" end_time="08:55:52" >
			</activity>
			<leg mode="pt">
			</leg>
			<activity type="h2" x="20000.0" y="2500.0" >
			</activity>
		</plan>

	</person>

<!-- ====================================================================== -->

	<person id="p_1015">
		<attributes>
			<attribute name="vehicles" class="org.matsim.vehicles.PersonVehicles">{"car":"p_1015"}</attribute>
		</attributes>
		<plan selected="yes">
			<activity type="h1" x="0.0" y="2500.0" end_time="08:58:35" >
			</activity>
			<leg mode="pt">
			</leg>
			<activity type="h2" x="20000.0" y="2500.0" >
			</activity>
		</plan>

	</person>

<!-- ====================================================================== -->

	<person id="p_1016">
		<attributes>
			<attribute name="vehicles" class="org.matsim.vehicles.PersonVehicles">{"car":"p_1016"}</attribute>
		</attributes>
		<plan selected="yes">
			<activity type="h1" x="0.0" y="2500.0" end_time="08:00:16" >
			</activity>
			<leg mode="pt">
			</leg>
			<activity type="h2" x="20000.0" y="2500.0" >
			</activity>
		</plan>

	</person>

<!-- ====================================================================== -->

	<person id="p_1017">
		<attributes>
			<attribute name="vehicles" class="org.matsim.vehicles.PersonVehicles">{"car":"p_1017"}</attribute>
		</attributes>
		<plan selected="yes">
			<activity type="h1" x="0.0" y="2500.0" end_time="08:27:39" >
			</activity>
			<leg mode="car">
			</leg>
			<activity type="h2" x="20000.0" y="2500.0" >
			</activity>
		</plan>

	</person>

<!-- ====================================================================== -->

	<person id="p_1018">
		<attributes>
			<attribute name="vehicles" class="org.matsim.vehicles.PersonVehicles">{"car":"p_1018"}</attribute>
		</attributes>
		<plan selected="yes">
			<activity type="h1" x="0.0" y="2500.0" end_time="08:37:15" >
			</activity>
			<leg mode="car">
			</leg>
			<activity type="h2" x="20000.0" y="2500.0" >
			</activity>
		</plan>

	</person>

<!-- ====================================================================== -->

	<person id="p_1019">
		<attributes>
			<attribute name="vehicles" class="org.matsim.vehicles.PersonVehicles">{"car":"p_1019"}</attribute>
		</attributes>
		<plan selected="yes">
			<activity type="h1" x="0.0" y="2500.0" end_time="08:56:16" >
			</activity>
			<leg mode="pt">
			</leg>
			<activity type="h2" x="20000.0" y="2500.0" >
			</activity>
		</plan>

	</person>

<!-- ====================================================================== -->

	<person id="p_102">
		<attributes>
			<attribute name="vehicles" class="org.matsim.vehicles.PersonVehicles">{"car":"p_102"}</attribute>
		</attributes>
		<plan selected="yes">
			<activity type="h1" x="0.0" y="2500.0" end_time="08:47:24" >
			</activity>
			<leg mode="car">
			</leg>
			<activity type="h2" x="20000.0" y="2500.0" >
			</activity>
		</plan>

	</person>

<!-- ====================================================================== -->

	<person id="p_1020">
		<attributes>
			<attribute name="vehicles" class="org.matsim.vehicles.PersonVehicles">{"car":"p_1020"}</attribute>
		</attributes>
		<plan selected="yes">
			<activity type="h1" x="0.0" y="2500.0" end_time="08:42:38" >
			</activity>
			<leg mode="pt">
			</leg>
			<activity type="h2" x="20000.0" y="2500.0" >
			</activity>
		</plan>

	</person>

<!-- ====================================================================== -->

	<person id="p_1021">
		<attributes>
			<attribute name="vehicles" class="org.matsim.vehicles.PersonVehicles">{"car":"p_1021"}</attribute>
		</attributes>
		<plan selected="yes">
			<activity type="h1" x="0.0" y="2500.0" end_time="08:37:08" >
			</activity>
			<leg mode="pt">
			</leg>
			<activity type="h2" x="20000.0" y="2500.0" >
			</activity>
		</plan>

	</person>

<!-- ====================================================================== -->

	<person id="p_1022">
		<attributes>
			<attribute name="vehicles" class="org.matsim.vehicles.PersonVehicles">{"car":"p_1022"}</attribute>
		</attributes>
		<plan selected="yes">
			<activity type="h1" x="0.0" y="2500.0" end_time="08:12:22" >
			</activity>
			<leg mode="pt">
			</leg>
			<activity type="h2" x="20000.0" y="2500.0" >
			</activity>
		</plan>

	</person>

<!-- ====================================================================== -->

	<person id="p_1023">
		<attributes>
			<attribute name="vehicles" class="org.matsim.vehicles.PersonVehicles">{"car":"p_1023"}</attribute>
		</attributes>
		<plan selected="yes">
			<activity type="h1" x="0.0" y="2500.0" end_time="08:20:59" >
			</activity>
			<leg mode="car">
			</leg>
			<activity type="h2" x="20000.0" y="2500.0" >
			</activity>
		</plan>

	</person>

<!-- ====================================================================== -->

	<person id="p_1024">
		<attributes>
			<attribute name="vehicles" class="org.matsim.vehicles.PersonVehicles">{"car":"p_1024"}</attribute>
		</attributes>
		<plan selected="yes">
			<activity type="h1" x="0.0" y="2500.0" end_time="08:06:04" >
			</activity>
			<leg mode="pt">
			</leg>
			<activity type="h2" x="20000.0" y="2500.0" >
			</activity>
		</plan>

	</person>

<!-- ====================================================================== -->

	<person id="p_1025">
		<attributes>
			<attribute name="vehicles" class="org.matsim.vehicles.PersonVehicles">{"car":"p_1025"}</attribute>
		</attributes>
		<plan selected="yes">
			<activity type="h1" x="0.0" y="2500.0" end_time="08:49:08" >
			</activity>
			<leg mode="car">
			</leg>
			<activity type="h2" x="20000.0" y="2500.0" >
			</activity>
		</plan>

	</person>

<!-- ====================================================================== -->

	<person id="p_1026">
		<attributes>
			<attribute name="vehicles" class="org.matsim.vehicles.PersonVehicles">{"car":"p_1026"}</attribute>
		</attributes>
		<plan selected="yes">
			<activity type="h1" x="0.0" y="2500.0" end_time="08:15:15" >
			</activity>
			<leg mode="car">
			</leg>
			<activity type="h2" x="20000.0" y="2500.0" >
			</activity>
		</plan>

	</person>

<!-- ====================================================================== -->

	<person id="p_1027">
		<attributes>
			<attribute name="vehicles" class="org.matsim.vehicles.PersonVehicles">{"car":"p_1027"}</attribute>
		</attributes>
		<plan selected="yes">
			<activity type="h1" x="0.0" y="2500.0" end_time="08:32:29" >
			</activity>
			<leg mode="pt">
			</leg>
			<activity type="h2" x="20000.0" y="2500.0" >
			</activity>
		</plan>

	</person>

<!-- ====================================================================== -->

	<person id="p_1028">
		<attributes>
			<attribute name="vehicles" class="org.matsim.vehicles.PersonVehicles">{"car":"p_1028"}</attribute>
		</attributes>
		<plan selected="yes">
			<activity type="h1" x="0.0" y="2500.0" end_time="08:53:43" >
			</activity>
			<leg mode="pt">
			</leg>
			<activity type="h2" x="20000.0" y="2500.0" >
			</activity>
		</plan>

	</person>

<!-- ====================================================================== -->

	<person id="p_1029">
		<attributes>
			<attribute name="vehicles" class="org.matsim.vehicles.PersonVehicles">{"car":"p_1029"}</attribute>
		</attributes>
		<plan selected="yes">
			<activity type="h1" x="0.0" y="2500.0" end_time="08:08:53" >
			</activity>
			<leg mode="car">
			</leg>
			<activity type="h2" x="20000.0" y="2500.0" >
			</activity>
		</plan>

	</person>

<!-- ====================================================================== -->

	<person id="p_103">
		<attributes>
			<attribute name="vehicles" class="org.matsim.vehicles.PersonVehicles">{"car":"p_103"}</attribute>
		</attributes>
		<plan selected="yes">
			<activity type="h1" x="0.0" y="2500.0" end_time="08:29:35" >
			</activity>
			<leg mode="pt">
			</leg>
			<activity type="h2" x="20000.0" y="2500.0" >
			</activity>
		</plan>

	</person>

<!-- ====================================================================== -->

	<person id="p_1030">
		<attributes>
			<attribute name="vehicles" class="org.matsim.vehicles.PersonVehicles">{"car":"p_1030"}</attribute>
		</attributes>
		<plan selected="yes">
			<activity type="h1" x="0.0" y="2500.0" end_time="08:04:10" >
			</activity>
			<leg mode="pt">
			</leg>
			<activity type="h2" x="20000.0" y="2500.0" >
			</activity>
		</plan>

	</person>

<!-- ====================================================================== -->

	<person id="p_1031">
		<attributes>
			<attribute name="vehicles" class="org.matsim.vehicles.PersonVehicles">{"car":"p_1031"}</attribute>
		</attributes>
		<plan selected="yes">
			<activity type="h1" x="0.0" y="2500.0" end_time="08:11:15" >
			</activity>
			<leg mode="pt">
			</leg>
			<activity type="h2" x="20000.0" y="2500.0" >
			</activity>
		</plan>

	</person>

<!-- ====================================================================== -->

	<person id="p_1032">
		<attributes>
			<attribute name="vehicles" class="org.matsim.vehicles.PersonVehicles">{"car":"p_1032"}</attribute>
		</attributes>
		<plan selected="yes">
			<activity type="h1" x="0.0" y="2500.0" end_time="08:34:56" >
			</activity>
			<leg mode="pt">
			</leg>
			<activity type="h2" x="20000.0" y="2500.0" >
			</activity>
		</plan>

	</person>

<!-- ====================================================================== -->

	<person id="p_1033">
		<attributes>
			<attribute name="vehicles" class="org.matsim.vehicles.PersonVehicles">{"car":"p_1033"}</attribute>
		</attributes>
		<plan selected="yes">
			<activity type="h1" x="0.0" y="2500.0" end_time="08:51:56" >
			</activity>
			<leg mode="pt">
			</leg>
			<activity type="h2" x="20000.0" y="2500.0" >
			</activity>
		</plan>

	</person>

<!-- ====================================================================== -->

	<person id="p_1034">
		<attributes>
			<attribute name="vehicles" class="org.matsim.vehicles.PersonVehicles">{"car":"p_1034"}</attribute>
		</attributes>
		<plan selected="yes">
			<activity type="h1" x="0.0" y="2500.0" end_time="08:21:47" >
			</activity>
			<leg mode="car">
			</leg>
			<activity type="h2" x="20000.0" y="2500.0" >
			</activity>
		</plan>

	</person>

<!-- ====================================================================== -->

	<person id="p_1035">
		<attributes>
			<attribute name="vehicles" class="org.matsim.vehicles.PersonVehicles">{"car":"p_1035"}</attribute>
		</attributes>
		<plan selected="yes">
			<activity type="h1" x="0.0" y="2500.0" end_time="08:53:09" >
			</activity>
			<leg mode="car">
			</leg>
			<activity type="h2" x="20000.0" y="2500.0" >
			</activity>
		</plan>

	</person>

<!-- ====================================================================== -->

	<person id="p_1036">
		<attributes>
			<attribute name="vehicles" class="org.matsim.vehicles.PersonVehicles">{"car":"p_1036"}</attribute>
		</attributes>
		<plan selected="yes">
			<activity type="h1" x="0.0" y="2500.0" end_time="08:32:29" >
			</activity>
			<leg mode="car">
			</leg>
			<activity type="h2" x="20000.0" y="2500.0" >
			</activity>
		</plan>

	</person>

<!-- ====================================================================== -->

	<person id="p_1037">
		<attributes>
			<attribute name="vehicles" class="org.matsim.vehicles.PersonVehicles">{"car":"p_1037"}</attribute>
		</attributes>
		<plan selected="yes">
			<activity type="h1" x="0.0" y="2500.0" end_time="08:49:55" >
			</activity>
			<leg mode="pt">
			</leg>
			<activity type="h2" x="20000.0" y="2500.0" >
			</activity>
		</plan>

	</person>

<!-- ====================================================================== -->

	<person id="p_1038">
		<attributes>
			<attribute name="vehicles" class="org.matsim.vehicles.PersonVehicles">{"car":"p_1038"}</attribute>
		</attributes>
		<plan selected="yes">
			<activity type="h1" x="0.0" y="2500.0" end_time="08:57:08" >
			</activity>
			<leg mode="pt">
			</leg>
			<activity type="h2" x="20000.0" y="2500.0" >
			</activity>
		</plan>

	</person>

<!-- ====================================================================== -->

	<person id="p_1039">
		<attributes>
			<attribute name="vehicles" class="org.matsim.vehicles.PersonVehicles">{"car":"p_1039"}</attribute>
		</attributes>
		<plan selected="yes">
			<activity type="h1" x="0.0" y="2500.0" end_time="08:20:03" >
			</activity>
			<leg mode="car">
			</leg>
			<activity type="h2" x="20000.0" y="2500.0" >
			</activity>
		</plan>

	</person>

<!-- ====================================================================== -->

	<person id="p_104">
		<attributes>
			<attribute name="vehicles" class="org.matsim.vehicles.PersonVehicles">{"car":"p_104"}</attribute>
		</attributes>
		<plan selected="yes">
			<activity type="h1" x="0.0" y="2500.0" end_time="08:51:10" >
			</activity>
			<leg mode="car">
			</leg>
			<activity type="h2" x="20000.0" y="2500.0" >
			</activity>
		</plan>

	</person>

<!-- ====================================================================== -->

	<person id="p_1040">
		<attributes>
			<attribute name="vehicles" class="org.matsim.vehicles.PersonVehicles">{"car":"p_1040"}</attribute>
		</attributes>
		<plan selected="yes">
			<activity type="h1" x="0.0" y="2500.0" end_time="08:13:40" >
			</activity>
			<leg mode="car">
			</leg>
			<activity type="h2" x="20000.0" y="2500.0" >
			</activity>
		</plan>

	</person>

<!-- ====================================================================== -->

	<person id="p_1041">
		<attributes>
			<attribute name="vehicles" class="org.matsim.vehicles.PersonVehicles">{"car":"p_1041"}</attribute>
		</attributes>
		<plan selected="yes">
			<activity type="h1" x="0.0" y="2500.0" end_time="08:36:23" >
			</activity>
			<leg mode="car">
			</leg>
			<activity type="h2" x="20000.0" y="2500.0" >
			</activity>
		</plan>

	</person>

<!-- ====================================================================== -->

	<person id="p_1042">
		<attributes>
			<attribute name="vehicles" class="org.matsim.vehicles.PersonVehicles">{"car":"p_1042"}</attribute>
		</attributes>
		<plan selected="yes">
			<activity type="h1" x="0.0" y="2500.0" end_time="08:06:57" >
			</activity>
			<leg mode="car">
			</leg>
			<activity type="h2" x="20000.0" y="2500.0" >
			</activity>
		</plan>

	</person>

<!-- ====================================================================== -->

	<person id="p_1043">
		<attributes>
			<attribute name="vehicles" class="org.matsim.vehicles.PersonVehicles">{"car":"p_1043"}</attribute>
		</attributes>
		<plan selected="yes">
			<activity type="h1" x="0.0" y="2500.0" end_time="08:47:57" >
			</activity>
			<leg mode="car">
			</leg>
			<activity type="h2" x="20000.0" y="2500.0" >
			</activity>
		</plan>

	</person>

<!-- ====================================================================== -->

	<person id="p_1044">
		<attributes>
			<attribute name="vehicles" class="org.matsim.vehicles.PersonVehicles">{"car":"p_1044"}</attribute>
		</attributes>
		<plan selected="yes">
			<activity type="h1" x="0.0" y="2500.0" end_time="08:10:08" >
			</activity>
			<leg mode="pt">
			</leg>
			<activity type="h2" x="20000.0" y="2500.0" >
			</activity>
		</plan>

	</person>

<!-- ====================================================================== -->

	<person id="p_1045">
		<attributes>
			<attribute name="vehicles" class="org.matsim.vehicles.PersonVehicles">{"car":"p_1045"}</attribute>
		</attributes>
		<plan selected="yes">
			<activity type="h1" x="0.0" y="2500.0" end_time="08:01:23" >
			</activity>
			<leg mode="pt">
			</leg>
			<activity type="h2" x="20000.0" y="2500.0" >
			</activity>
		</plan>

	</person>

<!-- ====================================================================== -->

	<person id="p_1046">
		<attributes>
			<attribute name="vehicles" class="org.matsim.vehicles.PersonVehicles">{"car":"p_1046"}</attribute>
		</attributes>
		<plan selected="yes">
			<activity type="h1" x="0.0" y="2500.0" end_time="08:29:18" >
			</activity>
			<leg mode="pt">
			</leg>
			<activity type="h2" x="20000.0" y="2500.0" >
			</activity>
		</plan>

	</person>

<!-- ====================================================================== -->

	<person id="p_1047">
		<attributes>
			<attribute name="vehicles" class="org.matsim.vehicles.PersonVehicles">{"car":"p_1047"}</attribute>
		</attributes>
		<plan selected="yes">
			<activity type="h1" x="0.0" y="2500.0" end_time="08:49:05" >
			</activity>
			<leg mode="pt">
			</leg>
			<activity type="h2" x="20000.0" y="2500.0" >
			</activity>
		</plan>

	</person>

<!-- ====================================================================== -->

	<person id="p_1048">
		<attributes>
			<attribute name="vehicles" class="org.matsim.vehicles.PersonVehicles">{"car":"p_1048"}</attribute>
		</attributes>
		<plan selected="yes">
			<activity type="h1" x="0.0" y="2500.0" end_time="08:47:09" >
			</activity>
			<leg mode="pt">
			</leg>
			<activity type="h2" x="20000.0" y="2500.0" >
			</activity>
		</plan>

	</person>

<!-- ====================================================================== -->

	<person id="p_1049">
		<attributes>
			<attribute name="vehicles" class="org.matsim.vehicles.PersonVehicles">{"car":"p_1049"}</attribute>
		</attributes>
		<plan selected="yes">
			<activity type="h1" x="0.0" y="2500.0" end_time="08:18:56" >
			</activity>
			<leg mode="car">
			</leg>
			<activity type="h2" x="20000.0" y="2500.0" >
			</activity>
		</plan>

	</person>

<!-- ====================================================================== -->

	<person id="p_105">
		<attributes>
			<attribute name="vehicles" class="org.matsim.vehicles.PersonVehicles">{"car":"p_105"}</attribute>
		</attributes>
		<plan selected="yes">
			<activity type="h1" x="0.0" y="2500.0" end_time="08:53:46" >
			</activity>
			<leg mode="pt">
			</leg>
			<activity type="h2" x="20000.0" y="2500.0" >
			</activity>
		</plan>

	</person>

<!-- ====================================================================== -->

	<person id="p_1050">
		<attributes>
			<attribute name="vehicles" class="org.matsim.vehicles.PersonVehicles">{"car":"p_1050"}</attribute>
		</attributes>
		<plan selected="yes">
			<activity type="h1" x="0.0" y="2500.0" end_time="08:37:03" >
			</activity>
			<leg mode="pt">
			</leg>
			<activity type="h2" x="20000.0" y="2500.0" >
			</activity>
		</plan>

	</person>

<!-- ====================================================================== -->

	<person id="p_1051">
		<attributes>
			<attribute name="vehicles" class="org.matsim.vehicles.PersonVehicles">{"car":"p_1051"}</attribute>
		</attributes>
		<plan selected="yes">
			<activity type="h1" x="0.0" y="2500.0" end_time="08:19:27" >
			</activity>
			<leg mode="pt">
			</leg>
			<activity type="h2" x="20000.0" y="2500.0" >
			</activity>
		</plan>

	</person>

<!-- ====================================================================== -->

	<person id="p_1052">
		<attributes>
			<attribute name="vehicles" class="org.matsim.vehicles.PersonVehicles">{"car":"p_1052"}</attribute>
		</attributes>
		<plan selected="yes">
			<activity type="h1" x="0.0" y="2500.0" end_time="08:17:07" >
			</activity>
			<leg mode="car">
			</leg>
			<activity type="h2" x="20000.0" y="2500.0" >
			</activity>
		</plan>

	</person>

<!-- ====================================================================== -->

	<person id="p_1053">
		<attributes>
			<attribute name="vehicles" class="org.matsim.vehicles.PersonVehicles">{"car":"p_1053"}</attribute>
		</attributes>
		<plan selected="yes">
			<activity type="h1" x="0.0" y="2500.0" end_time="08:06:16" >
			</activity>
			<leg mode="pt">
			</leg>
			<activity type="h2" x="20000.0" y="2500.0" >
			</activity>
		</plan>

	</person>

<!-- ====================================================================== -->

	<person id="p_1054">
		<attributes>
			<attribute name="vehicles" class="org.matsim.vehicles.PersonVehicles">{"car":"p_1054"}</attribute>
		</attributes>
		<plan selected="yes">
			<activity type="h1" x="0.0" y="2500.0" end_time="08:34:05" >
			</activity>
			<leg mode="pt">
			</leg>
			<activity type="h2" x="20000.0" y="2500.0" >
			</activity>
		</plan>

	</person>

<!-- ====================================================================== -->

	<person id="p_1055">
		<attributes>
			<attribute name="vehicles" class="org.matsim.vehicles.PersonVehicles">{"car":"p_1055"}</attribute>
		</attributes>
		<plan selected="yes">
			<activity type="h1" x="0.0" y="2500.0" end_time="08:38:24" >
			</activity>
			<leg mode="pt">
			</leg>
			<activity type="h2" x="20000.0" y="2500.0" >
			</activity>
		</plan>

	</person>

<!-- ====================================================================== -->

	<person id="p_1056">
		<attributes>
			<attribute name="vehicles" class="org.matsim.vehicles.PersonVehicles">{"car":"p_1056"}</attribute>
		</attributes>
		<plan selected="yes">
			<activity type="h1" x="0.0" y="2500.0" end_time="08:07:48" >
			</activity>